@<TRIPOS>MOLECULE
AAG
 72 72 0 0 0
SMALL
GASTEIGER

@<TRIPOS>ATOM
      1  N         -3.6180   43.1750   39.4360 N.3   131  AAG131     -0.3211
      2  CA        -3.1180   42.0210   40.1430 C.3   131  AAG131      0.0692
      3  C         -1.6130   42.0900   40.4300 C.2   131  AAG131      0.1374
      4  O         -0.7720   41.8240   39.5660 O.2   131  AAG131     -0.2994
      5  CB        -3.4510   40.7470   39.3600 C.3   131  AAG131      0.0458
      6  CG        -2.8290   39.5230   39.9240 C.2   131  AAG131      0.2168
      7  OD1       -1.9790   39.4600   40.8180 O.2   131  AAG131     -0.2757
      8  ND2       -3.2440   38.3210   39.4270 N.am  131  AAG131     -0.2885
      9  C1        -3.3620   36.6650   38.9850 C.3     1  AAG1        0.1461
     10  C2        -4.5920   36.2010   39.8350 C.3     1  AAG1        0.0941
     11  C3        -4.4990   34.6790   39.8870 C.3     1  AAG1        0.1058
     12  C4        -3.2270   34.1450   39.2610 C.3     1  AAG1        0.1112
     13  C5        -2.0220   34.8020   39.9220 C.3     1  AAG1        0.1122
     14  C6        -0.6950   34.3370   39.4020 C.3     1  AAG1        0.0730
     15  C7        -6.1490   37.7370   41.0080 C.2     1  AAG1        0.2103
     16  C8        -7.2000   37.8540   42.1740 C.3     1  AAG1        0.0122
     17  N2        -5.6300   36.5100   40.8170 N.am    1  AAG1       -0.3060
     18  O3        -5.5830   34.1160   39.1330 O.3     1  AAG1       -0.3872
     19  O4        -3.0980   32.7470   39.5110 O.3     1  AAG1       -0.3865
     20  O5        -2.1420   36.2080   39.6870 O.3     1  AAG1       -0.3488
     21  O6        -0.6760   34.0620   38.0130 O.3     1  AAG1       -0.3924
     22  O7        -5.8550   38.7140   40.3130 O.2     1  AAG1       -0.2761
     23  C1        -2.2320   31.3840   38.4210 C.3     2  AAG2        0.0691
     24  C2        -2.2520   31.0600   36.9430 C.3     2  AAG2        0.0748
     25  C3        -3.1590   29.8270   36.7380 C.3     2  AAG2        0.1039
     26  C4        -2.7810   28.6890   37.6980 C.3     2  AAG2        0.1110
     27  C5        -2.8850   29.2090   39.1300 C.3     2  AAG2        0.1100
     28  C6        -2.5520   28.2430   40.2190 C.3     2  AAG2        0.0729
     29  C7        -1.9930   33.0730   35.5450 C.2     2  AAG2        0.2103
     30  C8        -2.6650   34.4310   35.1310 C.3     2  AAG2        0.0122
     31  N2        -2.7420   32.2790   36.3260 N.am    2  AAG2       -0.3079
     32  O3        -3.0330   29.3240   35.4050 O.3     2  AAG2       -0.3872
     33  O4        -3.6530   27.5750   37.5430 O.3     2  AAG2       -0.3865
     34  O5        -1.9730   30.2870   39.2490 O.3     2  AAG2       -0.3697
     35  O6        -1.1610   28.0930   40.4590 O.3     2  AAG2       -0.3924
     36  O7        -0.8760   32.7550   35.1280 O.2     2  AAG2       -0.2761
     37 H          -4.6198   43.0683   39.2765 H     131  AAG131      0.1189
     38 H          -3.1381   43.2590   38.5399 H     131  AAG131      0.1189
     39 H          -3.6062   42.0055   41.0950 H     131  AAG131      0.0539
     40 H          -1.2942   42.3665   41.3718 H     131  AAG131      0.1043
     41 H          -4.5131   40.6176   39.3604 H     131  AAG131      0.0378
     42 H          -3.0567   40.8731   38.3733 H     131  AAG131      0.0378
     43 H          -4.0971   38.6238   39.0399 H     131  AAG131      0.1512
     44 H          -3.4485   36.3761   37.9584 H       1  AAG1        0.0827
     45 H          -4.8658   37.1826   39.5087 H       1  AAG1        0.0567
     46 H          -4.5240   34.4098   40.9223 H       1  AAG1        0.0640
     47 H          -3.2700   34.3469   38.2111 H       1  AAG1        0.0646
     48 H          -2.0332   34.5372   40.9587 H       1  AAG1        0.0646
     49 H           0.0289   35.0990   39.6024 H       1  AAG1        0.0584
     50 H          -0.4777   33.4149   39.8994 H       1  AAG1        0.0584
     51 H          -7.5480   38.8636   42.2405 H       1  AAG1        0.0322
     52 H          -6.7398   37.5737   43.0984 H       1  AAG1        0.0322
     53 H          -8.0266   37.2042   41.9756 H       1  AAG1        0.0322
     54 H          -5.9712   35.7735   41.3742 H       1  AAG1        0.1492
     55 H          -5.5097   34.3920   38.2060 H       1  AAG1        0.2100
     56 H          -3.0614   32.5917   40.4678 H       1  AAG1        0.2100
     57 H          -0.8692   34.8746   37.5198 H       1  AAG1        0.2095
     58 H          -3.1864   31.7872   38.6883 H       2  AAG2        0.0579
     59 H          -1.4301   32.0763   38.5713 H       2  AAG2        0.0579
     60 H          -1.3098   30.7959   36.5101 H       2  AAG2        0.0547
     61 H          -4.1622   30.1472   36.9277 H       2  AAG2        0.0639
     62 H          -1.7842   28.3679   37.4787 H       2  AAG2        0.0646
     63 H          -3.9163   29.4591   39.2674 H       2  AAG2        0.0646
     64 H          -2.9516   27.2867   39.9530 H       2  AAG2        0.0584
     65 H          -2.9785   28.6351   41.1186 H       2  AAG2        0.0584
     66 H          -1.9920   34.9882   34.5134 H       2  AAG2        0.0322
     67 H          -2.8951   34.9974   36.0092 H       2  AAG2        0.0322
     68 H          -3.5656   34.2325   34.5885 H       2  AAG2        0.0322
     69 H          -3.6775   32.5383   36.4898 H       2  AAG2        0.1491
     70 H          -2.1185   29.0392   35.2520 H       2  AAG2        0.2100
     71 H          -4.5633   27.8474   37.7380 H       2  AAG2        0.2100
     72 H          -0.7323   27.7380   39.6646 H       2  AAG2        0.2095
@<TRIPOS>BOND
     1    36    29    2
     2    30    29    1
     3    32    25    1
     4    29    31   am
     5    31    24    1
     6    25    24    1
     7    25    26    1
     8    24    23    1
     9    33    26    1
    10    26    27    1
    11    21    14    1
    12    23    34    1
    13     9     8    1
    14     9    20    1
    15     9    10    1
    16    27    34    1
    17    27    28    1
    18    18    11    1
    19    12    19    1
    20    12    11    1
    21    12    13    1
    22     5     6    1
    23     5     2    1
    24    14    13    1
    25     8     6   am
    26     1     2    1
    27     4     3    2
    28    20    13    1
    29    10    11    1
    30    10    17    1
    31     6     7    2
    32     2     3    1
    33    28    35    1
    34    22    15    2
    35    17    15   am
    36    15    16    1
    37     1    37    1
    38     1    38    1
    39     2    39    1
    40     3    40    1
    41     5    41    1
    42     5    42    1
    43     8    43    1
    44     9    44    1
    45    10    45    1
    46    11    46    1
    47    12    47    1
    48    13    48    1
    49    14    49    1
    50    14    50    1
    51    16    51    1
    52    16    52    1
    53    16    53    1
    54    17    54    1
    55    18    55    1
    56    19    56    1
    57    21    57    1
    58    23    58    1
    59    23    59    1
    60    24    60    1
    61    25    61    1
    62    26    62    1
    63    27    63    1
    64    28    64    1
    65    28    65    1
    66    30    66    1
    67    30    67    1
    68    30    68    1
    69    31    69    1
    70    32    70    1
    71    33    71    1
    72    35    72    1
