@<TRIPOS>MOLECULE
AAG
   22     1     1     0     0
SMALL
No Charge or Current Charge


@<TRIPOS>ATOM
      1 N           45.7940    58.0320    22.1940 ANY        1 AAG       0.000000
      2 CA          46.0240    58.0360    23.6130 ANY        1 AAG       0.000000
      3 C           45.4770    56.7330    24.2040 ANY        1 AAG       0.000000
      4 O           44.2530    56.5730    24.1250 ANY        1 AAG       0.000000
      5 CB          45.3230    59.2270    24.2760 ANY        1 AAG       0.000000
      6 CG          45.7710    59.3610    25.7320 ANY        1 AAG       0.000000
      7 OD1         45.8820    58.3270    26.4250 ANY        1 AAG       0.000000
      8 ND2         46.0690    60.5750    26.2100 N.1        1 AAG       0.000000
      9 C1          46.4490    60.2480    28.2200 C.1        2 AAG       0.000000
     10 C2          47.4420    61.3290    27.7320 ANY        2 AAG       0.000000
     11 C3          46.9320    62.7380    27.8470 ANY        2 AAG       0.000000
     12 C4          45.3770    62.6150    27.7570 ANY        2 AAG       0.000000
     13 C5          44.9780    61.9740    29.1130 ANY        2 AAG       0.000000
     14 C6          43.4940    61.6840    29.2140 ANY        2 AAG       0.000000
     15 C7          49.7500    60.4550    28.0340 ANY        2 AAG       0.000000
     16 C8          50.6820    59.8850    29.0580 ANY        2 AAG       0.000000
     17 N2          48.6600    61.0970    28.5530 ANY        2 AAG       0.000000
     18 O3          47.4630    63.6620    26.8870 ANY        2 AAG       0.000000
     19 O4          44.7390    63.8760    27.4840 ANY        2 AAG       0.000000
     20 O5          45.6730    60.7560    29.3060 ANY        2 AAG       0.000000
     21 O6          43.0310    60.9540    28.1340 ANY        2 AAG       0.000000
     22 O7          49.9320    60.3760    26.8970 ANY        2 AAG       0.000000
@<TRIPOS>BOND
     1     8     9 1   
@<TRIPOS>SUBSTRUCTURE
     1 AAG         1 TEMP              0 ****  ****    0 ROOT
