@<TRIPOS>MOLECULE
TPQ
   24    29     1     0     0
SMALL
bcc


@<TRIPOS>ATOM
      1 N           -5.2020    -3.3370    -2.6200 NT         1 TPQ      -0.909800
      2 CA          -4.5040    -2.2050    -2.0130 CT         1 TPQ       0.198500
      3 CB          -3.3060    -1.7970    -2.8780 CT         1 TPQ      -0.052400
      4 C           -5.5340    -1.0960    -1.8700 CT         1 TPQ       0.524400
      5 O           -6.4720    -0.9020    -2.6310 OS         1 TPQ      -0.502600
      6 OXT         -5.3020    -0.3230    -0.7760 OH         1 TPQ      -0.589800
      7 C1          -2.5670    -0.6280    -2.3040 CT         1 TPQ      -0.104000
      8 C2          -1.5050    -0.9180    -1.3050 CT         1 TPQ       0.427600
      9 O2          -1.2340    -2.0640    -0.9590 OS         1 TPQ      -0.415600
     10 C3          -0.7700     0.2290    -0.7290 CT         1 TPQ      -0.207700
     11 C4          -1.0360     1.4890    -1.0850 CT         1 TPQ       0.107800
     12 O4          -0.3600     2.5690    -0.5580 OH         1 TPQ      -0.503800
     13 C5          -2.0900     1.7830    -2.0820 CT         1 TPQ       0.396600
     14 O5          -2.3500     2.9310    -2.4270 OS         1 TPQ      -0.400600
     15 C6          -2.8270     0.6370    -2.6550 CT         1 TPQ      -0.123700
     16 H           -6.1780    -3.4320    -2.4450 H          1 TPQ       0.372800
     17 H2          -4.6520    -4.0710    -3.0090 H          1 TPQ       0.372800
     18 HA          -4.1540    -2.4820    -1.0110 H1         1 TPQ       0.054700
     19 HB2         -3.6230    -1.5450    -3.8970 HC         1 TPQ       0.086700
     20 HB3         -2.5970    -2.6280    -2.9610 HC         1 TPQ       0.086700
     21 HXT         -5.9460     0.4050    -0.6420 HO         1 TPQ       0.449000
     22 H3           0.0000     0.0000     0.0000 HC         1 TPQ       0.137700
     23 HO4         -0.9870     3.1970    -0.1840 HO         1 TPQ       0.447000
     24 H6          -3.5970     0.8710    -3.3830 HC         1 TPQ       0.146700
@<TRIPOS>BOND
     1     1     2 1   
     2     1    16 1   
     3     1    17 1   
     4     2     3 1   
     5     2     4 1   
     6     2    18 1   
     7     3     7 1   
     8     3    19 1   
     9     3    20 1   
    10     4     5 1   
    11     4     5 1   
    12     4     6 1   
    13     6    21 1   
    14     7     8 1   
    15     7    15 1   
    16     7    15 1   
    17     8     9 1   
    18     8     9 1   
    19     8    10 1   
    20    10    11 1   
    21    10    11 1   
    22    10    22 1   
    23    11    12 1   
    24    11    13 1   
    25    12    23 1   
    26    13    14 1   
    27    13    14 1   
    28    13    15 1   
    29    15    24 1   
@<TRIPOS>SUBSTRUCTURE
     1 TPQ         1 TEMP              0 ****  ****    0 ROOT
