TPQ
  -OEChem-08022416403D

 24 24  0     1  0  0  0  0  0999 V2000
   -5.2020   -3.3370   -2.6200 N   0  0  0  0  0  0  0  0  0  0  0  0
   -4.5040   -2.2050   -2.0130 C   0  0  1  0  0  0  0  0  0  0  0  0
   -3.3060   -1.7970   -2.8780 C   0  0  0  0  0  0  0  0  0  0  0  0
   -5.5340   -1.0960   -1.8700 C   0  0  0  0  0  0  0  0  0  0  0  0
   -6.4720   -0.9020   -2.6310 O   0  0  0  0  0  0  0  0  0  0  0  0
   -5.3020   -0.3230   -0.7760 O   0  0  0  0  0  0  0  0  0  0  0  0
   -2.5670   -0.6280   -2.3040 C   0  0  0  0  0  0  0  0  0  0  0  0
   -1.5050   -0.9180   -1.3050 C   0  0  0  0  0  0  0  0  0  0  0  0
   -1.2340   -2.0640   -0.9590 O   0  0  0  0  0  0  0  0  0  0  0  0
   -0.7700    0.2290   -0.7290 C   0  0  0  0  0  0  0  0  0  0  0  0
   -1.0360    1.4890   -1.0850 C   0  0  0  0  0  0  0  0  0  0  0  0
   -0.3600    2.5690   -0.5580 O   0  0  0  0  0  0  0  0  0  0  0  0
   -2.0900    1.7830   -2.0820 C   0  0  0  0  0  0  0  0  0  0  0  0
   -2.3500    2.9310   -2.4270 O   0  0  0  0  0  0  0  0  0  0  0  0
   -2.8270    0.6370   -2.6550 C   0  0  0  0  0  0  0  0  0  0  0  0
   -6.1780   -3.4320   -2.4450 H   0  0  0  0  0  0  0  0  0  0  0  0
   -4.6520   -4.0710   -3.0090 H   0  0  0  0  0  0  0  0  0  0  0  0
   -4.1540   -2.4820   -1.0110 H   0  0  0  0  0  0  0  0  0  0  0  0
   -3.6230   -1.5450   -3.8970 H   0  0  0  0  0  0  0  0  0  0  0  0
   -2.5970   -2.6280   -2.9610 H   0  0  0  0  0  0  0  0  0  0  0  0
   -5.9460    0.4050   -0.6420 H   0  0  0  0  0  0  0  0  0  0  0  0
    0.0000    0.0000   -0.0000 H   0  0  0  0  0  0  0  0  0  0  0  0
   -0.9870    3.1970   -0.1840 H   0  0  0  0  0  0  0  0  0  0  0  0
   -3.5970    0.8710   -3.3830 H   0  0  0  0  0  0  0  0  0  0  0  0
  1  2  1  0  0  0  0
  1 16  1  0  0  0  0
  1 17  1  0  0  0  0
  2  3  1  0  0  0  0
  2  4  1  0  0  0  0
  2 18  1  0  0  0  0
  3  7  1  0  0  0  0
  3 19  1  0  0  0  0
  3 20  1  0  0  0  0
  4  5  2  0  0  0  0
  4  6  1  0  0  0  0
  6 21  1  0  0  0  0
  7  8  1  0  0  0  0
  7 15  2  0  0  0  0
  8  9  2  0  0  0  0
  8 10  1  0  0  0  0
 10 11  2  0  0  0  0
 10 22  1  0  0  0  0
 11 12  1  0  0  0  0
 11 13  1  0  0  0  0
 12 23  1  0  0  0  0
 13 14  2  0  0  0  0
 13 15  1  0  0  0  0
 15 24  1  0  0  0  0
M  END
> <OPENEYE_ISO_SMILES>
C1=C(C(=O)C=C(C1=O)O)C[C@@H](C(=O)O)N

> <OPENEYE_INCHI>
InChI=1S/C9H9NO5/c10-5(9(14)15)1-4-2-7(12)8(13)3-6(4)11/h2-3,5,13H,1,10H2,(H,14,15)/t5-/m0/s1

> <OPENEYE_INCHIKEY>
AGMJSPIGDFKRRO-YFKPBYRVSA-N

> <FORMULA>
C9H9NO5

$$$$
