@<TRIPOS>MOLECULE
TRE
   45    46     1     0     0
SMALL
bcc


@<TRIPOS>ATOM
      1 O1          -0.1510     0.0700    -1.0060 OS         1 TRE      -0.463600
      2 O2           1.3710    -1.5950    -0.6850 OS         1 TRE      -0.437600
      3 O3          -1.5250     1.7070    -0.4030 OS         1 TRE      -0.437600
      4 O4           1.7560     1.7190    -1.5280 OH         1 TRE      -0.581800
      5 O5          -2.3920    -1.0820    -1.4930 OH         1 TRE      -0.581800
      6 O6           4.1790     0.6640    -2.0480 OH         1 TRE      -0.593300
      7 O7          -3.8690    -0.4810     1.6090 OH         1 TRE      -0.593300
      8 O8           4.2250    -2.2090    -1.9010 OH         1 TRE      -0.597800
      9 O9          -3.9530     1.5800    -1.2760 OH         1 TRE      -0.597800
     10 O10          4.0020    -2.3780     1.7080 OH         1 TRE      -0.606300
     11 O11         -3.2450     2.5380     2.6920 OH         1 TRE      -0.606300
     12 C1           1.0350    -0.2910    -0.4000 CT         1 TRE       0.303900
     13 C2          -1.1490     0.4280    -0.0910 CT         1 TRE       0.303900
     14 C3           2.1830     0.6070    -0.8020 CT         1 TRE       0.133600
     15 C4          -2.2660    -0.5550    -0.1920 CT         1 TRE       0.133600
     16 C5           3.1300    -0.1600    -1.7050 CT         1 TRE       0.109600
     17 C6          -3.5870    -0.0870     0.3220 CT         1 TRE       0.109600
     18 C7           3.7000    -1.3610    -0.9470 CT         1 TRE       0.091600
     19 C8          -3.7820     1.4170     0.1000 CT         1 TRE       0.091600
     20 C9           2.5750    -2.0180    -0.1940 CT         1 TRE       0.113600
     21 C10         -2.4950     2.1440     0.4630 CT         1 TRE       0.113600
     22 C11          2.7290    -1.9170     1.2990 CT         1 TRE       0.109400
     23 C12         -2.1740     2.0540     1.9130 CT         1 TRE       0.109400
     24 H1           0.8950    -0.2040     0.6930 H2         1 TRE       0.094700
     25 H2          -0.6840     0.3150     0.9240 H2         1 TRE       0.094700
     26 H3           2.7170     0.9760     0.0870 H1         1 TRE       0.089700
     27 H4          -1.9910    -1.4500     0.4300 H1         1 TRE       0.089700
     28 H5           2.5540    -0.5320    -2.5720 H1         1 TRE       0.067200
     29 H6          -4.3830    -0.5490    -0.3330 H1         1 TRE       0.067200
     30 H7           4.4650    -0.9420    -0.2680 H1         1 TRE       0.077200
     31 H8          -4.6390     1.7420     0.7020 H1         1 TRE       0.077200
     32 H9           2.6280    -3.1240    -0.4200 H1         1 TRE       0.095200
     33 H10         -2.6790     3.2160     0.2210 H1         1 TRE       0.095200
     34 H11          2.5870    -0.8700     1.6120 H1         1 TRE       0.042700
     35 H12          1.9560    -2.5700     1.7470 H1         1 TRE       0.042700
     36 H13         -1.9820     1.0390     2.2960 H1         1 TRE       0.042700
     37 H14         -1.3200     2.7220     2.1270 H1         1 TRE       0.042700
     38 H15          0.9160     1.5160    -1.9700 HO         1 TRE       0.419500
     39 H16         -3.1740    -0.6520    -1.9110 HO         1 TRE       0.419500
     40 H17          4.4160     0.4350    -2.9870 HO         1 TRE       0.418000
     41 H18         -4.8480    -0.5230     1.7120 HO         1 TRE       0.418000
     42 H19          4.7770    -2.9320    -1.5630 HO         1 TRE       0.428500
     43 H20         -3.3880     2.2650    -1.6800 HO         1 TRE       0.428500
     44 H21          3.8810    -2.9680     2.4820 HO         1 TRE       0.411000
     45 H22         -3.0010     2.2970     3.6390 HO         1 TRE       0.411000
@<TRIPOS>BOND
     1     1    12 1   
     2     1    13 1   
     3     2    12 1   
     4     2    20 1   
     5     3    13 1   
     6     3    21 1   
     7     4    14 1   
     8     4    38 1   
     9     5    15 1   
    10     5    39 1   
    11     6    16 1   
    12     6    40 1   
    13     7    17 1   
    14     7    41 1   
    15     8    18 1   
    16     8    42 1   
    17     9    19 1   
    18     9    43 1   
    19    10    22 1   
    20    10    44 1   
    21    11    23 1   
    22    11    45 1   
    23    12    14 1   
    24    12    24 1   
    25    13    15 1   
    26    13    25 1   
    27    14    16 1   
    28    14    26 1   
    29    15    17 1   
    30    15    27 1   
    31    16    18 1   
    32    16    28 1   
    33    17    19 1   
    34    17    29 1   
    35    18    20 1   
    36    18    30 1   
    37    19    21 1   
    38    19    31 1   
    39    20    22 1   
    40    20    32 1   
    41    21    23 1   
    42    21    33 1   
    43    22    34 1   
    44    22    35 1   
    45    23    36 1   
    46    23    37 1   
@<TRIPOS>SUBSTRUCTURE
     1 TRE         1 TEMP              0 ****  ****    0 ROOT
