@<TRIPOS>MOLECULE
AAG
   36     2     1     0     0
SMALL
No Charge or Current Charge


@<TRIPOS>ATOM
      1 N           -3.6180    43.1750    39.4360 ANY        1 AAG       0.000000
      2 CA          -3.1180    42.0210    40.1430 ANY        1 AAG       0.000000
      3 C           -1.6130    42.0900    40.4300 ANY        1 AAG       0.000000
      4 O           -0.7720    41.8240    39.5660 ANY        1 AAG       0.000000
      5 CB          -3.4510    40.7470    39.3600 ANY        1 AAG       0.000000
      6 CG          -2.8290    39.5230    39.9240 ANY        1 AAG       0.000000
      7 OD1         -1.9790    39.4600    40.8180 ANY        1 AAG       0.000000
      8 ND2         -3.2440    38.3210    39.4270 N.1        1 AAG       0.000000
      9 C1          -3.3620    36.6650    38.9850 C.1        2 AAG       0.000000
     10 C2          -4.5920    36.2010    39.8350 ANY        2 AAG       0.000000
     11 C3          -4.4990    34.6790    39.8870 ANY        2 AAG       0.000000
     12 C4          -3.2270    34.1450    39.2610 ANY        2 AAG       0.000000
     13 C5          -2.0220    34.8020    39.9220 ANY        2 AAG       0.000000
     14 C6          -0.6950    34.3370    39.4020 ANY        2 AAG       0.000000
     15 C7          -6.1490    37.7370    41.0080 ANY        2 AAG       0.000000
     16 C8          -7.2000    37.8540    42.1740 ANY        2 AAG       0.000000
     17 N2          -5.6300    36.5100    40.8170 ANY        2 AAG       0.000000
     18 O3          -5.5830    34.1160    39.1330 ANY        2 AAG       0.000000
     19 O4          -3.0980    32.7470    39.5110 O.2        2 AAG       0.000000
     20 O5          -2.1420    36.2080    39.6870 ANY        2 AAG       0.000000
     21 O6          -0.6760    34.0620    38.0130 ANY        2 AAG       0.000000
     22 O7          -5.8550    38.7140    40.3130 ANY        2 AAG       0.000000
     23 C1          -2.2320    31.3840    38.4210 C.1        3 AAG       0.000000
     24 C2          -2.2520    31.0600    36.9430 ANY        3 AAG       0.000000
     25 C3          -3.1590    29.8270    36.7380 ANY        3 AAG       0.000000
     26 C4          -2.7810    28.6890    37.6980 ANY        3 AAG       0.000000
     27 C5          -2.8850    29.2090    39.1300 ANY        3 AAG       0.000000
     28 C6          -2.5520    28.2430    40.2190 ANY        3 AAG       0.000000
     29 C7          -1.9930    33.0730    35.5450 ANY        3 AAG       0.000000
     30 C8          -2.6650    34.4310    35.1310 ANY        3 AAG       0.000000
     31 N2          -2.7420    32.2790    36.3260 ANY        3 AAG       0.000000
     32 O3          -3.0330    29.3240    35.4050 ANY        3 AAG       0.000000
     33 O4          -3.6530    27.5750    37.5430 ANY        3 AAG       0.000000
     34 O5          -1.9730    30.2870    39.2490 ANY        3 AAG       0.000000
     35 O6          -1.1610    28.0930    40.4590 ANY        3 AAG       0.000000
     36 O7          -0.8760    32.7550    35.1280 ANY        3 AAG       0.000000
@<TRIPOS>BOND
     1     8     9 1   
     2    19    23 1   
@<TRIPOS>SUBSTRUCTURE
     1 AAG         1 TEMP              0 ****  ****    0 ROOT
